11
energy: -25.316149832743 gnorm: 0.000523875667 xtb: 6.6.1 (8d0f1dd)
C     -5.62430    2.43130    0.25660
C     -4.20280    2.08740   -0.03670
Br    -3.78300    1.90970   -2.03520
H     -5.72350    3.49020   -1.36540
O     -6.03410    3.49160   -0.43210
N     -3.30810    3.07560    0.43320
Br    -3.67700    0.38630    0.84890
Br    -6.83030    0.69230   -0.60060
Li    -6.09440    1.00140    1.66320
H     -3.35060    3.93890   -0.09410
H     -3.38200    3.24650    1.42860
