9
energy: -28.686437618181 gnorm: 0.000791879851 xtb: 6.6.1 (8d0f1dd)
C     -2.37200    1.36590    0.10390
N     -3.36820    1.87740    0.71750
Br    -0.05290    1.14400   -1.37470
Br    -4.85162    2.11498    1.44725
Br    -2.70080   -0.44300   -0.42220
Br    -0.19390    2.72050    1.46850
Br    -3.39900    3.62400    1.23470
N     -1.21510    1.94630   -0.20290
Li    -4.69000    0.49310    1.06380
