12
energy: -19.188036183703 gnorm: 0.000606650508 xtb: 6.5.1 (conda-forge)
C     -0.37750   -0.29500    2.50970
C      0.97480   -0.47820    4.90490
C     -0.40690   -0.42210    4.90790
Br    -0.95440   -0.44960    5.83770
C     -1.08070   -0.33010    3.70190
Br    -2.15950   -0.28600    3.69840
I      2.01460   -0.61870    6.74670
Li    -0.90700   -0.22310    1.57170
C      1.00590   -0.35200    2.52220
Br     1.55970   -0.32500    1.59560
C      1.69050   -0.44410    3.72210
Br     2.76880   -0.48860    3.73270
