9
energy: -27.488563969495 gnorm: 0.000706432779 xtb: 6.6.1 (8d0f1dd)
N     -7.68130    2.29650    0.58590
C     -6.63530    2.85640    0.02570
Br    -7.78460    0.43830    0.70750
Li    -8.88460    3.38370    1.37440
N     -5.64230    2.05340   -0.56260
Br    -7.48480    5.30600    0.83990
N     -6.38710    4.12770   -0.01760
Br    -6.25960    1.19290   -2.12450
Br    -4.02160    2.94000   -0.87530
