7
energy: -9.960635920879 gnorm: 0.000972407704 xtb: 6.6.1 (8d0f1dd)
C     -2.86190    0.18390    0.08660
N     -1.63370    0.33580   -0.16080
Br    -3.25700   -0.55270    0.79070
Br    -1.00520   -1.19190    1.02360
Br     0.16450   -0.44430    0.00890
N     -0.70890   -0.36520    0.50550
Li    -3.55800    0.81900   -0.42920
