13
energy: -22.959810125191 gnorm: 0.000106280865 xtb: 6.6.1 (8d0f1dd)
N     -3.96490    3.92450   -0.13300
C     -5.14760    3.27990   -0.10950
H     -4.19060    0.06480    0.09500
C     -5.28690    1.92500   -0.03020
C     -4.11760    1.14090    0.03160
H     -1.97850    1.20430    0.05490
Li    -3.62370    5.71570   -0.23590
C     -2.82030    3.18190   -0.07410
H     -6.26310    1.46980   -0.01530
H     -6.01680    3.92600   -0.15910
C     -2.90680    1.74950    0.01050
N     -1.60000    3.63820   -0.08600
Br    -1.26260    5.44550   -0.18980
