8
energy: -23.772866126018 gnorm: 0.000449512513 xtb: 6.6.1 (8d0f1dd)
N     -7.47750    2.35570    0.61390
C     -6.35250    2.71620    0.06130
Br    -8.35430    0.77970    0.08690
Li    -8.97150    3.19620    1.12540
N     -5.41060    2.31720   -0.69940
Br    -7.65330    5.42960    1.00180
S     -5.80180    4.36000    0.56490
Br    -5.28810    0.55740   -1.24340
