11
energy: -33.483350667974 gnorm: 0.000423159120 xtb: 6.6.1 (8d0f1dd)
C      3.75980    3.36930    1.19120
Br     5.11020    3.52830    0.38400
Li     2.76900    2.15540    0.49430
N      3.31010    4.06850    2.34400
N      2.32730    3.94610    2.92370
Br     1.40860    3.25610    2.78920
C      1.25160    4.18200    3.99280
O      2.20340    5.02900    4.28740
N     -0.12680    3.23610    3.89610
Br    -1.27720    2.98550    4.44850
Br    -0.15480    2.60090    3.17020
