7
energy: -10.749505963575 gnorm: 0.000785997910 xtb: 6.6.1 (8d0f1dd)
N     -6.39620    3.24010    0.09360
P     -4.74430    3.17810   -0.10180
Br    -6.83880    2.62820    0.76600
Li    -6.78220    4.17530    0.07680
S     -4.04660    4.62430   -1.14810
Br    -4.59480    1.87960   -0.59090
Br    -4.15653    2.88153    0.74478
